Version 4
SHEET 1 880 680
WIRE -128 -96 -352 -96
WIRE 192 -96 -128 -96
WIRE 464 -96 192 -96
WIRE 464 -48 464 -96
WIRE -352 -16 -352 -96
WIRE -144 -16 -352 -16
WIRE 192 -16 192 -96
WIRE 32 32 -128 32
WIRE -352 48 -352 -16
WIRE 464 48 464 32
WIRE 736 48 464 48
WIRE 32 64 32 32
WIRE 64 64 32 64
WIRE 464 64 464 48
WIRE -128 144 -128 112
WIRE 64 144 -128 144
WIRE 368 144 320 144
WIRE 416 144 368 144
WIRE -128 160 -128 144
WIRE 64 224 32 224
WIRE -128 272 -128 240
WIRE 32 272 32 224
WIRE 32 272 -128 272
WIRE -128 288 -128 272
WIRE -144 352 -144 -16
WIRE 112 352 112 320
WIRE 112 352 -144 352
WIRE -352 400 -352 128
WIRE -128 400 -128 368
WIRE -128 400 -352 400
WIRE 112 400 -128 400
WIRE 192 400 192 320
WIRE 192 400 112 400
WIRE 272 400 272 320
WIRE 272 400 192 400
WIRE 464 400 464 160
WIRE 464 400 272 400
WIRE 112 464 112 400
FLAG 112 464 0
FLAG 736 48 Load
FLAG -128 -96 Vin
FLAG 368 144 Out
SYMBOL SpecialFunctions\\LTC2965 192 144 R0
SYMATTR InstName U1
SYMBOL res -144 16 R0
SYMATTR InstName R1
SYMATTR Value 499K
SYMBOL res -144 144 R0
SYMATTR InstName R2
SYMATTR Value 66.5K
SYMBOL res -144 272 R0
SYMATTR InstName R3
SYMATTR Value 634K
SYMBOL voltage -352 32 R0
SYMATTR InstName V1
SYMBOL nmos 416 64 R0
SYMATTR InstName M1
SYMATTR Value BSC031N06NS3
SYMBOL res 448 -64 R0
SYMATTR InstName R4
SYMATTR Value 40K
TEXT -328 0 Left 2 !.dc V1 18 10 .5
